Circuit: *** SPICE deck for cell XOR_schem{sch} from library XOR

Ignoring BSIM parameter XL
Ignoring BSIM parameter XW
Ignoring BSIM parameter XL
Ignoring BSIM parameter XW
Warning: Pd = 0 is less than W.
Warning: Ps = 0 is less than W.
Warning: Pd = 0 is less than W.
Warning: Ps = 0 is less than W.
Direct Newton iteration for .op point succeeded.

Date: Sun May 22 20:28:14 2022
Total elapsed time: 0.201 seconds.

tnom = 27
temp = 27
method = modified trap
totiter = 3133
traniter = 3114
tranpoints = 1127
accept = 1102
rejected = 25
matrix size = 14
fillins = 2
solver = Normal
Matrix Compiler1: off  [0.3]/0.9/0.4
Matrix Compiler2: 1.49 KB object code size  0.4/0.6/[0.3]


